* NGSPICE file created from minimax_rf.ext - technology: gf180mcuC

* Black-box entry subcircuit for gf180mcu_fd_sc_mcu7t5v0__antenna abstract view
.subckt gf180mcu_fd_sc_mcu7t5v0__antenna I VDD VSS
.ends

* Black-box entry subcircuit for gf180mcu_fd_sc_mcu7t5v0__fill_2 abstract view
.subckt gf180mcu_fd_sc_mcu7t5v0__fill_2 VDD VSS
.ends

* Black-box entry subcircuit for gf180mcu_fd_sc_mcu7t5v0__fillcap_32 abstract view
.subckt gf180mcu_fd_sc_mcu7t5v0__fillcap_32 VDD VSS
.ends

* Black-box entry subcircuit for gf180mcu_fd_sc_mcu7t5v0__nand2_1 abstract view
.subckt gf180mcu_fd_sc_mcu7t5v0__nand2_1 A1 A2 ZN VDD VSS
.ends

* Black-box entry subcircuit for gf180mcu_fd_sc_mcu7t5v0__fillcap_4 abstract view
.subckt gf180mcu_fd_sc_mcu7t5v0__fillcap_4 VDD VSS
.ends

* Black-box entry subcircuit for gf180mcu_fd_sc_mcu7t5v0__fillcap_8 abstract view
.subckt gf180mcu_fd_sc_mcu7t5v0__fillcap_8 VDD VSS
.ends

* Black-box entry subcircuit for gf180mcu_fd_sc_mcu7t5v0__fill_1 abstract view
.subckt gf180mcu_fd_sc_mcu7t5v0__fill_1 VDD VSS
.ends

* Black-box entry subcircuit for gf180mcu_fd_sc_mcu7t5v0__buf_1 abstract view
.subckt gf180mcu_fd_sc_mcu7t5v0__buf_1 I Z VDD VSS
.ends

* Black-box entry subcircuit for gf180mcu_fd_sc_mcu7t5v0__fillcap_16 abstract view
.subckt gf180mcu_fd_sc_mcu7t5v0__fillcap_16 VDD VSS
.ends

* Black-box entry subcircuit for gf180mcu_fd_sc_mcu7t5v0__fillcap_64 abstract view
.subckt gf180mcu_fd_sc_mcu7t5v0__fillcap_64 VDD VSS
.ends

* Black-box entry subcircuit for gf180mcu_fd_sc_mcu7t5v0__filltie abstract view
.subckt gf180mcu_fd_sc_mcu7t5v0__filltie VDD VSS
.ends

* Black-box entry subcircuit for gf180mcu_fd_sc_mcu7t5v0__oai21_1 abstract view
.subckt gf180mcu_fd_sc_mcu7t5v0__oai21_1 A1 A2 B ZN VDD VSS
.ends

* Black-box entry subcircuit for gf180mcu_fd_sc_mcu7t5v0__clkinv_2 abstract view
.subckt gf180mcu_fd_sc_mcu7t5v0__clkinv_2 I ZN VDD VSS
.ends

* Black-box entry subcircuit for gf180mcu_fd_sc_mcu7t5v0__nand3_1 abstract view
.subckt gf180mcu_fd_sc_mcu7t5v0__nand3_1 A1 A2 A3 ZN VDD VSS
.ends

* Black-box entry subcircuit for gf180mcu_fd_sc_mcu7t5v0__dffq_1 abstract view
.subckt gf180mcu_fd_sc_mcu7t5v0__dffq_1 D CLK Q VDD VSS
.ends

* Black-box entry subcircuit for gf180mcu_fd_sc_mcu7t5v0__buf_2 abstract view
.subckt gf180mcu_fd_sc_mcu7t5v0__buf_2 I Z VDD VSS
.ends

* Black-box entry subcircuit for gf180mcu_fd_sc_mcu7t5v0__aoi21_1 abstract view
.subckt gf180mcu_fd_sc_mcu7t5v0__aoi21_1 A1 A2 B ZN VDD VSS
.ends

* Black-box entry subcircuit for gf180mcu_fd_sc_mcu7t5v0__nor2_1 abstract view
.subckt gf180mcu_fd_sc_mcu7t5v0__nor2_1 A1 A2 ZN VDD VSS
.ends

* Black-box entry subcircuit for gf180mcu_fd_sc_mcu7t5v0__nor3_2 abstract view
.subckt gf180mcu_fd_sc_mcu7t5v0__nor3_2 A1 A2 A3 ZN VDD VSS
.ends

* Black-box entry subcircuit for gf180mcu_fd_sc_mcu7t5v0__or2_1 abstract view
.subckt gf180mcu_fd_sc_mcu7t5v0__or2_1 A1 A2 Z VDD VSS
.ends

* Black-box entry subcircuit for gf180mcu_fd_sc_mcu7t5v0__buf_4 abstract view
.subckt gf180mcu_fd_sc_mcu7t5v0__buf_4 I Z VDD VSS
.ends

* Black-box entry subcircuit for gf180mcu_fd_sc_mcu7t5v0__clkinv_1 abstract view
.subckt gf180mcu_fd_sc_mcu7t5v0__clkinv_1 I ZN VDD VSS
.ends

* Black-box entry subcircuit for gf180mcu_fd_sc_mcu7t5v0__clkbuf_8 abstract view
.subckt gf180mcu_fd_sc_mcu7t5v0__clkbuf_8 I Z VDD VSS
.ends

* Black-box entry subcircuit for gf180mcu_fd_sc_mcu7t5v0__clkbuf_16 abstract view
.subckt gf180mcu_fd_sc_mcu7t5v0__clkbuf_16 I Z VDD VSS
.ends

* Black-box entry subcircuit for gf180mcu_fd_sc_mcu7t5v0__endcap abstract view
.subckt gf180mcu_fd_sc_mcu7t5v0__endcap VDD VSS
.ends

* Black-box entry subcircuit for gf180mcu_fd_sc_mcu7t5v0__clkbuf_4 abstract view
.subckt gf180mcu_fd_sc_mcu7t5v0__clkbuf_4 I Z VDD VSS
.ends

* Black-box entry subcircuit for gf180mcu_fd_sc_mcu7t5v0__clkbuf_1 abstract view
.subckt gf180mcu_fd_sc_mcu7t5v0__clkbuf_1 I Z VDD VSS
.ends

* Black-box entry subcircuit for gf180mcu_fd_sc_mcu7t5v0__clkbuf_2 abstract view
.subckt gf180mcu_fd_sc_mcu7t5v0__clkbuf_2 I Z VDD VSS
.ends

* Black-box entry subcircuit for gf180mcu_fd_sc_mcu7t5v0__buf_8 abstract view
.subckt gf180mcu_fd_sc_mcu7t5v0__buf_8 I Z VDD VSS
.ends

* Black-box entry subcircuit for gf180mcu_fd_sc_mcu7t5v0__nand2_2 abstract view
.subckt gf180mcu_fd_sc_mcu7t5v0__nand2_2 A1 A2 ZN VDD VSS
.ends

* Black-box entry subcircuit for gf180mcu_fd_sc_mcu7t5v0__and2_1 abstract view
.subckt gf180mcu_fd_sc_mcu7t5v0__and2_1 A1 A2 Z VDD VSS
.ends

* Black-box entry subcircuit for gf180mcu_fd_sc_mcu7t5v0__nor2_2 abstract view
.subckt gf180mcu_fd_sc_mcu7t5v0__nor2_2 A1 A2 ZN VDD VSS
.ends

.subckt minimax_rf addrD[0] addrD[1] addrD[2] addrD[3] addrD[4] addrS[0] addrS[1]
+ addrS[2] addrS[3] addrS[4] clk new_value[0] new_value[10] new_value[11] new_value[12]
+ new_value[13] new_value[14] new_value[15] new_value[16] new_value[17] new_value[18]
+ new_value[19] new_value[1] new_value[20] new_value[21] new_value[22] new_value[23]
+ new_value[24] new_value[25] new_value[26] new_value[27] new_value[28] new_value[29]
+ new_value[2] new_value[30] new_value[31] new_value[3] new_value[4] new_value[5]
+ new_value[6] new_value[7] new_value[8] new_value[9] rD[0] rD[10] rD[11] rD[12] rD[13]
+ rD[14] rD[15] rD[16] rD[17] rD[18] rD[19] rD[1] rD[20] rD[21] rD[22] rD[23] rD[24]
+ rD[25] rD[26] rD[27] rD[28] rD[29] rD[2] rD[30] rD[31] rD[3] rD[4] rD[5] rD[6] rD[7]
+ rD[8] rD[9] rS[0] rS[10] rS[11] rS[12] rS[13] rS[14] rS[15] rS[16] rS[17] rS[18]
+ rS[19] rS[1] rS[20] rS[21] rS[22] rS[23] rS[24] rS[25] rS[26] rS[27] rS[28] rS[29]
+ rS[2] rS[30] rS[31] rS[3] rS[4] rS[5] rS[6] rS[7] rS[8] rS[9] vdd vss we
XANTENNA__12658__A2 register_file\[21\]\[13\] vdd vss gf180mcu_fd_sc_mcu7t5v0__antenna
XFILLER_39_211 vdd vss gf180mcu_fd_sc_mcu7t5v0__fill_2
XFILLER_41_1205 vdd vss gf180mcu_fd_sc_mcu7t5v0__fill_2
XFILLER_79_391 vdd vss gf180mcu_fd_sc_mcu7t5v0__fillcap_32
XFILLER_39_222 vdd vss gf180mcu_fd_sc_mcu7t5v0__fill_2
XFILLER_41_1227 vdd vss gf180mcu_fd_sc_mcu7t5v0__fill_2
XFILLER_39_244 vdd vss gf180mcu_fd_sc_mcu7t5v0__fill_2
X_09671_ _04913_ register_file\[27\]\[16\] _04982_ vdd vss gf180mcu_fd_sc_mcu7t5v0__nand2_1
XFILLER_80_1287 vdd vss gf180mcu_fd_sc_mcu7t5v0__fillcap_4
XFILLER_41_1238 vdd vss gf180mcu_fd_sc_mcu7t5v0__fillcap_8
XFILLER_132_1366 vdd vss gf180mcu_fd_sc_mcu7t5v0__fill_2
XFILLER_95_873 vdd vss gf180mcu_fd_sc_mcu7t5v0__fill_2
XFILLER_132_1377 vdd vss gf180mcu_fd_sc_mcu7t5v0__fill_2
XANTENNA__11330__A2 _06432_ vdd vss gf180mcu_fd_sc_mcu7t5v0__antenna
XFILLER_27_428 vdd vss gf180mcu_fd_sc_mcu7t5v0__fillcap_4
X_08622_ _03808_ register_file\[26\]\[1\] _03948_ vdd vss gf180mcu_fd_sc_mcu7t5v0__nand2_1
XANTENNA__09812__B _03838_ vdd vss gf180mcu_fd_sc_mcu7t5v0__antenna
XFILLER_55_748 vdd vss gf180mcu_fd_sc_mcu7t5v0__fill_2
XFILLER_82_534 vdd vss gf180mcu_fd_sc_mcu7t5v0__fill_1
XFILLER_54_236 vdd vss gf180mcu_fd_sc_mcu7t5v0__fill_2
XFILLER_55_759 vdd vss gf180mcu_fd_sc_mcu7t5v0__fill_1
XFILLER_54_247 vdd vss gf180mcu_fd_sc_mcu7t5v0__fill_1
XFILLER_82_567 vdd vss gf180mcu_fd_sc_mcu7t5v0__fill_2
XFILLER_39_1101 vdd vss gf180mcu_fd_sc_mcu7t5v0__fillcap_32
X_08553_ _03879_ _03880_ vdd vss gf180mcu_fd_sc_mcu7t5v0__buf_1
XFILLER_63_770 vdd vss gf180mcu_fd_sc_mcu7t5v0__fill_2
XFILLER_165_1131 vdd vss gf180mcu_fd_sc_mcu7t5v0__fillcap_4
XANTENNA__15105__I _01774_ vdd vss gf180mcu_fd_sc_mcu7t5v0__antenna
XFILLER_74_1014 vdd vss gf180mcu_fd_sc_mcu7t5v0__fill_2
XANTENNA__11094__A1 _06064_ vdd vss gf180mcu_fd_sc_mcu7t5v0__antenna
X_08484_ _03810_ _03811_ vdd vss gf180mcu_fd_sc_mcu7t5v0__buf_1
XFILLER_22_100 vdd vss gf180mcu_fd_sc_mcu7t5v0__fillcap_4
XANTENNA__07837__A2 register_file\[29\]\[24\] vdd vss gf180mcu_fd_sc_mcu7t5v0__antenna
XANTENNA__12830__A2 _07377_ vdd vss gf180mcu_fd_sc_mcu7t5v0__antenna
XFILLER_23_645 vdd vss gf180mcu_fd_sc_mcu7t5v0__fill_2
XFILLER_39_1167 vdd vss gf180mcu_fd_sc_mcu7t5v0__fill_2
XFILLER_52_18 vdd vss gf180mcu_fd_sc_mcu7t5v0__fill_2
XFILLER_62_291 vdd vss gf180mcu_fd_sc_mcu7t5v0__fill_2
XFILLER_50_442 vdd vss gf180mcu_fd_sc_mcu7t5v0__fill_1
XANTENNA__09039__A1 _04288_ vdd vss gf180mcu_fd_sc_mcu7t5v0__antenna
XANTENNA__14944__I _01178_ vdd vss gf180mcu_fd_sc_mcu7t5v0__antenna
XFILLER_11_818 vdd vss gf180mcu_fd_sc_mcu7t5v0__fill_2
XANTENNA__14032__A1 _01507_ vdd vss gf180mcu_fd_sc_mcu7t5v0__antenna
XFILLER_10_306 vdd vss gf180mcu_fd_sc_mcu7t5v0__fill_2
XFILLER_52_1312 vdd vss gf180mcu_fd_sc_mcu7t5v0__fill_1
XFILLER_108_1560 vdd vss gf180mcu_fd_sc_mcu7t5v0__fillcap_16
XFILLER_104_1413 vdd vss gf180mcu_fd_sc_mcu7t5v0__fill_2
XFILLER_149_875 vdd vss gf180mcu_fd_sc_mcu7t5v0__fill_1
XFILLER_182_108 vdd vss gf180mcu_fd_sc_mcu7t5v0__fillcap_64
XFILLER_143_1484 vdd vss gf180mcu_fd_sc_mcu7t5v0__fillcap_4
XFILLER_104_1435 vdd vss gf180mcu_fd_sc_mcu7t5v0__fill_1
XANTENNA__12594__A1 _07023_ vdd vss gf180mcu_fd_sc_mcu7t5v0__antenna
XFILLER_104_1446 vdd vss gf180mcu_fd_sc_mcu7t5v0__fillcap_8
X_09105_ _04213_ register_file\[28\]\[7\] _04425_ vdd vss gf180mcu_fd_sc_mcu7t5v0__nand2_1
XFILLER_175_160 vdd vss gf180mcu_fd_sc_mcu7t5v0__fillcap_4
XANTENNA__12464__I _07145_ vdd vss gf180mcu_fd_sc_mcu7t5v0__antenna
XFILLER_136_514 vdd vss gf180mcu_fd_sc_mcu7t5v0__fill_2
XFILLER_104_1457 vdd vss gf180mcu_fd_sc_mcu7t5v0__fillcap_4
XFILLER_52_1389 vdd vss gf180mcu_fd_sc_mcu7t5v0__fill_2
XFILLER_148_385 vdd vss gf180mcu_fd_sc_mcu7t5v0__fillcap_4
XFILLER_178_1525 vdd vss gf180mcu_fd_sc_mcu7t5v0__fill_1
XFILLER_148_396 vdd vss gf180mcu_fd_sc_mcu7t5v0__fill_2
XFILLER_136_547 vdd vss gf180mcu_fd_sc_mcu7t5v0__fillcap_4
X_09036_ _04149_ register_file\[15\]\[6\] _04357_ vdd vss gf180mcu_fd_sc_mcu7t5v0__nand2_1
XFILLER_163_344 vdd vss gf180mcu_fd_sc_mcu7t5v0__fill_1
XFILLER_139_1509 vdd vss gf180mcu_fd_sc_mcu7t5v0__fill_2
XANTENNA__14335__A2 _01847_ vdd vss gf180mcu_fd_sc_mcu7t5v0__antenna
XANTENNA__15532__A1 _02859_ vdd vss gf180mcu_fd_sc_mcu7t5v0__antenna
XFILLER_164_889 vdd vss gf180mcu_fd_sc_mcu7t5v0__fill_1
XFILLER_163_366 vdd vss gf180mcu_fd_sc_mcu7t5v0__fill_2
XFILLER_105_901 vdd vss gf180mcu_fd_sc_mcu7t5v0__fill_2
XFILLER_102_1170 vdd vss gf180mcu_fd_sc_mcu7t5v0__fill_1
XANTENNA__12346__A1 _07016_ vdd vss gf180mcu_fd_sc_mcu7t5v0__antenna
XFILLER_117_761 vdd vss gf180mcu_fd_sc_mcu7t5v0__fill_2
XFILLER_163_377 vdd vss gf180mcu_fd_sc_mcu7t5v0__fillcap_8
XFILLER_117_783 vdd vss gf180mcu_fd_sc_mcu7t5v0__fill_1
XFILLER_117_22 vdd vss gf180mcu_fd_sc_mcu7t5v0__fillcap_32
XFILLER_105_934 vdd vss gf180mcu_fd_sc_mcu7t5v0__fill_2
XFILLER_172_1102 vdd vss gf180mcu_fd_sc_mcu7t5v0__fill_1
XFILLER_46_1105 vdd vss gf180mcu_fd_sc_mcu7t5v0__fillcap_4
XFILLER_172_1113 vdd vss gf180mcu_fd_sc_mcu7t5v0__fillcap_8
XANTENNA__12897__A2 register_file\[18\]\[5\] vdd vss gf180mcu_fd_sc_mcu7t5v0__antenna
XFILLER_2_549 vdd vss gf180mcu_fd_sc_mcu7t5v0__fill_2
XFILLER_137_1244 vdd vss gf180mcu_fd_sc_mcu7t5v0__fill_1
XFILLER_78_807 vdd vss gf180mcu_fd_sc_mcu7t5v0__fillcap_8
XFILLER_104_455 vdd vss gf180mcu_fd_sc_mcu7t5v0__fillcap_4
XFILLER_89_144 vdd vss gf180mcu_fd_sc_mcu7t5v0__fillcap_4
XFILLER_85_1187 vdd vss gf180mcu_fd_sc_mcu7t5v0__fill_1
XFILLER_78_818 vdd vss gf180mcu_fd_sc_mcu7t5v0__fillcap_8
XFILLER_131_241 vdd vss gf180mcu_fd_sc_mcu7t5v0__fill_2
XFILLER_137_1277 vdd vss gf180mcu_fd_sc_mcu7t5v0__fill_1
XFILLER_104_488 vdd vss gf180mcu_fd_sc_mcu7t5v0__fill_2
XFILLER_150_1400 vdd vss gf180mcu_fd_sc_mcu7t5v0__fill_2
X_09938_ _05114_ register_file\[28\]\[20\] _05245_ vdd vss gf180mcu_fd_sc_mcu7t5v0__nand2_1
XFILLER_137_1299 vdd vss gf180mcu_fd_sc_mcu7t5v0__fill_2
XFILLER_104_499 vdd vss gf180mcu_fd_sc_mcu7t5v0__fill_2
XANTENNA__12649__A2 _07260_ vdd vss gf180mcu_fd_sc_mcu7t5v0__antenna
XFILLER_154_1580 vdd vss gf180mcu_fd_sc_mcu7t5v0__fill_1
XANTENNA__13846__A1 _01278_ vdd vss gf180mcu_fd_sc_mcu7t5v0__antenna
XFILLER_58_531 vdd vss gf180mcu_fd_sc_mcu7t5v0__fill_1
XFILLER_133_32 vdd vss gf180mcu_fd_sc_mcu7t5v0__fillcap_32
XANTENNA__09514__A2 register_file\[8\]\[13\] vdd vss gf180mcu_fd_sc_mcu7t5v0__antenna
XFILLER_19_907 vdd vss gf180mcu_fd_sc_mcu7t5v0__fill_2
XFILLER_115_1564 vdd vss gf180mcu_fd_sc_mcu7t5v0__fillcap_16
X_09869_ _05171_ _05177_ _05178_ vdd vss gf180mcu_fd_sc_mcu7t5v0__nand2_1
XTAP_3202 vdd vss gf180mcu_fd_sc_mcu7t5v0__filltie
XTAP_3213 vdd vss gf180mcu_fd_sc_mcu7t5v0__filltie
XFILLER_100_672 vdd vss gf180mcu_fd_sc_mcu7t5v0__fill_2
XTAP_3224 vdd vss gf180mcu_fd_sc_mcu7t5v0__filltie
XFILLER_100_683 vdd vss gf180mcu_fd_sc_mcu7t5v0__fillcap_16
X_11900_ _06682_ _06792_ _06794_ _00400_ vdd vss gf180mcu_fd_sc_mcu7t5v0__oai21_1
XTAP_3235 vdd vss gf180mcu_fd_sc_mcu7t5v0__filltie
XFILLER_93_36 vdd vss gf180mcu_fd_sc_mcu7t5v0__fillcap_32
XTAP_2501 vdd vss gf180mcu_fd_sc_mcu7t5v0__filltie
XFILLER_6_1390 vdd vss gf180mcu_fd_sc_mcu7t5v0__fill_2
X_12880_ _07406_ _07407_ vdd vss gf180mcu_fd_sc_mcu7t5v0__buf_1
XTAP_3246 vdd vss gf180mcu_fd_sc_mcu7t5v0__filltie
XFILLER_22_1160 vdd vss gf180mcu_fd_sc_mcu7t5v0__fillcap_8
XFILLER_45_236 vdd vss gf180mcu_fd_sc_mcu7t5v0__fill_2
XTAP_3257 vdd vss gf180mcu_fd_sc_mcu7t5v0__filltie
XTAP_2512 vdd vss gf180mcu_fd_sc_mcu7t5v0__filltie
XANTENNA__15891__CLK clknet_leaf_213_clk vdd vss gf180mcu_fd_sc_mcu7t5v0__antenna
XTAP_3268 vdd vss gf180mcu_fd_sc_mcu7t5v0__filltie
XTAP_2523 vdd vss gf180mcu_fd_sc_mcu7t5v0__filltie
XTAP_3279 vdd vss gf180mcu_fd_sc_mcu7t5v0__filltie
XTAP_2534 vdd vss gf180mcu_fd_sc_mcu7t5v0__filltie
XFILLER_73_567 vdd vss gf180mcu_fd_sc_mcu7t5v0__fill_1
X_11831_ _06748_ register_file\[7\]\[21\] _06753_ vdd vss gf180mcu_fd_sc_mcu7t5v0__nand2_1
XANTENNA__12639__I _06063_ vdd vss gf180mcu_fd_sc_mcu7t5v0__antenna
XTAP_2545 vdd vss gf180mcu_fd_sc_mcu7t5v0__filltie
XTAP_1800 vdd vss gf180mcu_fd_sc_mcu7t5v0__filltie
XFILLER_165_2 vdd vss gf180mcu_fd_sc_mcu7t5v0__fillcap_64
XANTENNA__13074__A2 _07520_ vdd vss gf180mcu_fd_sc_mcu7t5v0__antenna
XTAP_2556 vdd vss gf180mcu_fd_sc_mcu7t5v0__filltie
XFILLER_61_729 vdd vss gf180mcu_fd_sc_mcu7t5v0__fill_2
XTAP_1811 vdd vss gf180mcu_fd_sc_mcu7t5v0__filltie
XANTENNA__15015__I _01138_ vdd vss gf180mcu_fd_sc_mcu7t5v0__antenna
XTAP_1822 vdd vss gf180mcu_fd_sc_mcu7t5v0__filltie
XFILLER_148_1351 vdd vss gf180mcu_fd_sc_mcu7t5v0__fillcap_4
XTAP_2567 vdd vss gf180mcu_fd_sc_mcu7t5v0__filltie
XFILLER_14_612 vdd vss gf180mcu_fd_sc_mcu7t5v0__fill_2
X_14550_ _02058_ _02059_ _02060_ vdd vss gf180mcu_fd_sc_mcu7t5v0__nand2_1
XTAP_2578 vdd vss gf180mcu_fd_sc_mcu7t5v0__filltie
XTAP_1833 vdd vss gf180mcu_fd_sc_mcu7t5v0__filltie
XTAP_2589 vdd vss gf180mcu_fd_sc_mcu7t5v0__filltie
X_11762_ _06708_ _06704_ _06709_ _00347_ vdd vss gf180mcu_fd_sc_mcu7t5v0__oai21_1
XTAP_1844 vdd vss gf180mcu_fd_sc_mcu7t5v0__filltie
XFILLER_148_1373 vdd vss gf180mcu_fd_sc_mcu7t5v0__fill_2
XANTENNA__12821__A2 register_file\[1\]\[7\] vdd vss gf180mcu_fd_sc_mcu7t5v0__antenna
XFILLER_26_96 vdd vss gf180mcu_fd_sc_mcu7t5v0__fill_2
XTAP_1855 vdd vss gf180mcu_fd_sc_mcu7t5v0__filltie
XTAP_1866 vdd vss gf180mcu_fd_sc_mcu7t5v0__filltie
XFILLER_109_1346 vdd vss gf180mcu_fd_sc_mcu7t5v0__fill_2
XFILLER_13_133 vdd vss gf180mcu_fd_sc_mcu7t5v0__fillcap_8
X_13501_ _01021_ _01022_ vdd vss gf180mcu_fd_sc_mcu7t5v0__clkinv_2
XFILLER_41_442 vdd vss gf180mcu_fd_sc_mcu7t5v0__fill_2
XFILLER_158_105 vdd vss gf180mcu_fd_sc_mcu7t5v0__fill_1
XFILLER_109_1357 vdd vss gf180mcu_fd_sc_mcu7t5v0__fillcap_8
XFILLER_92_1169 vdd vss gf180mcu_fd_sc_mcu7t5v0__fill_2
XFILLER_13_144 vdd vss gf180mcu_fd_sc_mcu7t5v0__fillcap_16
X_10713_ _03890_ register_file\[15\]\[31\] _06009_ vdd vss gf180mcu_fd_sc_mcu7t5v0__nand2_1
XFILLER_42_976 vdd vss gf180mcu_fd_sc_mcu7t5v0__fillcap_8
XTAP_1877 vdd vss gf180mcu_fd_sc_mcu7t5v0__filltie
XFILLER_158_116 vdd vss gf180mcu_fd_sc_mcu7t5v0__fill_1
X_14481_ _01988_ _01991_ _01825_ _01992_ vdd vss gf180mcu_fd_sc_mcu7t5v0__nand3_1
XANTENNA__16247__CLK clknet_leaf_190_clk vdd vss gf180mcu_fd_sc_mcu7t5v0__antenna
XANTENNA__14023__A1 _01278_ vdd vss gf180mcu_fd_sc_mcu7t5v0__antenna
XTAP_1888 vdd vss gf180mcu_fd_sc_mcu7t5v0__filltie
XFILLER_70_1401 vdd vss gf180mcu_fd_sc_mcu7t5v0__fill_1
X_11693_ _06650_ register_file\[8\]\[7\] _06661_ vdd vss gf180mcu_fd_sc_mcu7t5v0__nand2_1
XTAP_1899 vdd vss gf180mcu_fd_sc_mcu7t5v0__filltie
XFILLER_70_1412 vdd vss gf180mcu_fd_sc_mcu7t5v0__fill_2
XFILLER_35_1532 vdd vss gf180mcu_fd_sc_mcu7t5v0__fillcap_8
X_16220_ _00608_ clknet_leaf_38_clk register_file\[23\]\[0\] vdd vss gf180mcu_fd_sc_mcu7t5v0__dffq_1
X_13432_ _07737_ _07752_ vdd vss gf180mcu_fd_sc_mcu7t5v0__buf_2
XFILLER_9_137 vdd vss gf180mcu_fd_sc_mcu7t5v0__fill_2
XFILLER_35_1554 vdd vss gf180mcu_fd_sc_mcu7t5v0__fill_1
X_10644_ _05693_ register_file\[22\]\[30\] _05941_ vdd vss gf180mcu_fd_sc_mcu7t5v0__nand2_1
XFILLER_139_341 vdd vss gf180mcu_fd_sc_mcu7t5v0__fill_2
XFILLER_70_1467 vdd vss gf180mcu_fd_sc_mcu7t5v0__fill_2
XANTENNA__12585__A1 _07212_ vdd vss gf180mcu_fd_sc_mcu7t5v0__antenna
XFILLER_173_108 vdd vss gf180mcu_fd_sc_mcu7t5v0__fill_2
XANTENNA__11388__A2 _06472_ vdd vss gf180mcu_fd_sc_mcu7t5v0__antenna
XFILLER_6_800 vdd vss gf180mcu_fd_sc_mcu7t5v0__fill_2
XFILLER_154_300 vdd vss gf180mcu_fd_sc_mcu7t5v0__fill_2
X_16151_ _00539_ clknet_leaf_190_clk register_file\[31\]\[27\] vdd vss gf180mcu_fd_sc_mcu7t5v0__dffq_1
XFILLER_6_811 vdd vss gf180mcu_fd_sc_mcu7t5v0__fillcap_4
XFILLER_31_1429 vdd vss gf180mcu_fd_sc_mcu7t5v0__fillcap_16
XFILLER_166_160 vdd vss gf180mcu_fd_sc_mcu7t5v0__fill_1
X_13363_ _07553_ _07704_ _07710_ _00947_ vdd vss gf180mcu_fd_sc_mcu7t5v0__oai21_1
XFILLER_139_385 vdd vss gf180mcu_fd_sc_mcu7t5v0__fill_2
X_10575_ _05871_ _05872_ _05873_ vdd vss gf180mcu_fd_sc_mcu7t5v0__nand2_1
XFILLER_177_1002 vdd vss gf180mcu_fd_sc_mcu7t5v0__fill_2
XANTENNA__09450__A1 _04558_ vdd vss gf180mcu_fd_sc_mcu7t5v0__antenna
XANTENNA__08253__A2 _03436_ vdd vss gf180mcu_fd_sc_mcu7t5v0__antenna
XFILLER_166_182 vdd vss gf180mcu_fd_sc_mcu7t5v0__fillcap_8
XFILLER_139_396 vdd vss gf180mcu_fd_sc_mcu7t5v0__fillcap_8
XFILLER_177_1013 vdd vss gf180mcu_fd_sc_mcu7t5v0__fill_2
XFILLER_158_95 vdd vss gf180mcu_fd_sc_mcu7t5v0__fill_2
X_15102_ _02604_ _02605_ _02276_ _02606_ vdd vss gf180mcu_fd_sc_mcu7t5v0__aoi21_1
XFILLER_5_321 vdd vss gf180mcu_fd_sc_mcu7t5v0__fill_2
X_12314_ _07054_ register_file\[25\]\[9\] _07056_ vdd vss gf180mcu_fd_sc_mcu7t5v0__nand2_1
XANTENNA__16397__CLK clknet_leaf_142_clk vdd vss gf180mcu_fd_sc_mcu7t5v0__antenna
XANTENNA__10060__A2 register_file\[9\]\[21\] vdd vss gf180mcu_fd_sc_mcu7t5v0__antenna
XANTENNA__14326__A2 register_file\[20\]\[8\] vdd vss gf180mcu_fd_sc_mcu7t5v0__antenna
XFILLER_115_709 vdd vss gf180mcu_fd_sc_mcu7t5v0__fill_1
XANTENNA__15523__A1 _02936_ vdd vss gf180mcu_fd_sc_mcu7t5v0__antenna
X_16082_ _00470_ clknet_leaf_231_clk register_file\[4\]\[22\] vdd vss gf180mcu_fd_sc_mcu7t5v0__dffq_1
XFILLER_181_141 vdd vss gf180mcu_fd_sc_mcu7t5v0__fill_1
X_13294_ _07667_ register_file\[14\]\[24\] _07669_ vdd vss gf180mcu_fd_sc_mcu7t5v0__nand2_1
XFILLER_108_750 vdd vss gf180mcu_fd_sc_mcu7t5v0__fill_2
XFILLER_6_866 vdd vss gf180mcu_fd_sc_mcu7t5v0__fillcap_16
XANTENNA__12337__A1 _07006_ vdd vss gf180mcu_fd_sc_mcu7t5v0__antenna
XFILLER_170_815 vdd vss gf180mcu_fd_sc_mcu7t5v0__fill_1
XFILLER_5_354 vdd vss gf180mcu_fd_sc_mcu7t5v0__fill_1
XFILLER_108_772 vdd vss gf180mcu_fd_sc_mcu7t5v0__fill_2
XFILLER_154_388 vdd vss gf180mcu_fd_sc_mcu7t5v0__fill_2
XFILLER_142_528 vdd vss gf180mcu_fd_sc_mcu7t5v0__fillcap_4
XFILLER_108_783 vdd vss gf180mcu_fd_sc_mcu7t5v0__fill_2
X_15033_ _02534_ _02536_ _02537_ _02538_ vdd vss gf180mcu_fd_sc_mcu7t5v0__nand3_1
XFILLER_177_1079 vdd vss gf180mcu_fd_sc_mcu7t5v0__fill_2
X_12245_ _06112_ _07009_ vdd vss gf180mcu_fd_sc_mcu7t5v0__buf_1
XFILLER_107_260 vdd vss gf180mcu_fd_sc_mcu7t5v0__fillcap_4
XANTENNA__08005__A2 register_file\[31\]\[26\] vdd vss gf180mcu_fd_sc_mcu7t5v0__antenna
XFILLER_5_387 vdd vss gf180mcu_fd_sc_mcu7t5v0__fill_2
XFILLER_5_398 vdd vss gf180mcu_fd_sc_mcu7t5v0__fillcap_16
XFILLER_64_1205 vdd vss gf180mcu_fd_sc_mcu7t5v0__fill_2
XFILLER_9_1408 vdd vss gf180mcu_fd_sc_mcu7t5v0__fill_2
XFILLER_122_230 vdd vss gf180mcu_fd_sc_mcu7t5v0__fillcap_8
X_12176_ _06265_ _03815_ _06959_ vdd vss gf180mcu_fd_sc_mcu7t5v0__nand2_1
XFILLER_9_1419 vdd vss gf180mcu_fd_sc_mcu7t5v0__fill_1
XFILLER_29_1347 vdd vss gf180mcu_fd_sc_mcu7t5v0__fill_2
XFILLER_68_1396 vdd vss gf180mcu_fd_sc_mcu7t5v0__fill_2
XFILLER_122_241 vdd vss gf180mcu_fd_sc_mcu7t5v0__fill_2
XFILLER_29_1358 vdd vss gf180mcu_fd_sc_mcu7t5v0__fill_1
XFILLER_69_818 vdd vss gf180mcu_fd_sc_mcu7t5v0__fill_2
XFILLER_111_915 vdd vss gf180mcu_fd_sc_mcu7t5v0__fillcap_4
XFILLER_64_1249 vdd vss gf180mcu_fd_sc_mcu7t5v0__fill_1
XFILLER_151_1219 vdd vss gf180mcu_fd_sc_mcu7t5v0__fill_2
XANTENNA__11560__A2 _06575_ vdd vss gf180mcu_fd_sc_mcu7t5v0__antenna
XFILLER_110_414 vdd vss gf180mcu_fd_sc_mcu7t5v0__fill_1
XFILLER_81_1541 vdd vss gf180mcu_fd_sc_mcu7t5v0__fillcap_4
X_11127_ _06126_ _06300_ _06303_ _00118_ vdd vss gf180mcu_fd_sc_mcu7t5v0__oai21_1
XFILLER_96_637 vdd vss gf180mcu_fd_sc_mcu7t5v0__fillcap_4
XFILLER_150_594 vdd vss gf180mcu_fd_sc_mcu7t5v0__fill_2
XFILLER_110_447 vdd vss gf180mcu_fd_sc_mcu7t5v0__fillcap_4
XFILLER_1_593 vdd vss gf180mcu_fd_sc_mcu7t5v0__fill_2
XFILLER_42_1525 vdd vss gf180mcu_fd_sc_mcu7t5v0__fill_1
XFILLER_77_851 vdd vss gf180mcu_fd_sc_mcu7t5v0__fill_1
XFILLER_42_1536 vdd vss gf180mcu_fd_sc_mcu7t5v0__fill_2
X_11058_ _06218_ register_file\[28\]\[28\] _06261_ vdd vss gf180mcu_fd_sc_mcu7t5v0__nand2_1
XFILLER_77_862 vdd vss gf180mcu_fd_sc_mcu7t5v0__fill_2
XFILLER_7_1154 vdd vss gf180mcu_fd_sc_mcu7t5v0__fillcap_8
X_15935_ _00323_ clknet_leaf_3_clk register_file\[8\]\[3\] vdd vss gf180mcu_fd_sc_mcu7t5v0__dffq_1
XFILLER_67_70 vdd vss gf180mcu_fd_sc_mcu7t5v0__fill_1
XFILLER_37_704 vdd vss gf180mcu_fd_sc_mcu7t5v0__fillcap_4
XFILLER_67_81 vdd vss gf180mcu_fd_sc_mcu7t5v0__fill_1
XFILLER_42_1558 vdd vss gf180mcu_fd_sc_mcu7t5v0__fill_2
XFILLER_114_1063 vdd vss gf180mcu_fd_sc_mcu7t5v0__fill_2
X_10009_ _05114_ register_file\[20\]\[21\] _05315_ vdd vss gf180mcu_fd_sc_mcu7t5v0__nand2_1
XFILLER_114_1074 vdd vss gf180mcu_fd_sc_mcu7t5v0__fill_2
XTAP_4470 vdd vss gf180mcu_fd_sc_mcu7t5v0__filltie
XFILLER_92_843 vdd vss gf180mcu_fd_sc_mcu7t5v0__fill_2
X_15866_ _00254_ clknet_leaf_255_clk register_file\[12\]\[30\] vdd vss gf180mcu_fd_sc_mcu7t5v0__dffq_1
XFILLER_64_534 vdd vss gf180mcu_fd_sc_mcu7t5v0__fillcap_8
XTAP_4481 vdd vss gf180mcu_fd_sc_mcu7t5v0__filltie
XFILLER_92_854 vdd vss gf180mcu_fd_sc_mcu7t5v0__fill_2
XFILLER_91_331 vdd vss gf180mcu_fd_sc_mcu7t5v0__fillcap_8
XFILLER_18_940 vdd vss gf180mcu_fd_sc_mcu7t5v0__fill_2
XTAP_4492 vdd vss gf180mcu_fd_sc_mcu7t5v0__filltie
XFILLER_149_1126 vdd vss gf180mcu_fd_sc_mcu7t5v0__fillcap_4
XFILLER_36_247 vdd vss gf180mcu_fd_sc_mcu7t5v0__fill_1
XFILLER_64_556 vdd vss gf180mcu_fd_sc_mcu7t5v0__fillcap_16
X_14817_ _02071_ register_file\[31\]\[14\] _02324_ vdd vss gf180mcu_fd_sc_mcu7t5v0__nand2_1
XFILLER_184_1028 vdd vss gf180mcu_fd_sc_mcu7t5v0__fill_1
XANTENNA__09269__A1 _04518_ vdd vss gf180mcu_fd_sc_mcu7t5v0__antenna
XFILLER_75_1301 vdd vss gf180mcu_fd_sc_mcu7t5v0__fillcap_4
XFILLER_18_973 vdd vss gf180mcu_fd_sc_mcu7t5v0__fill_2
XFILLER_64_578 vdd vss gf180mcu_fd_sc_mcu7t5v0__fill_1
XTAP_3780 vdd vss gf180mcu_fd_sc_mcu7t5v0__filltie
XFILLER_52_729 vdd vss gf180mcu_fd_sc_mcu7t5v0__fill_2
XFILLER_64_589 vdd vss gf180mcu_fd_sc_mcu7t5v0__fillcap_8
X_15797_ _00185_ clknet_leaf_205_clk register_file\[19\]\[25\] vdd vss gf180mcu_fd_sc_mcu7t5v0__dffq_1
XTAP_3791 vdd vss gf180mcu_fd_sc_mcu7t5v0__filltie
XFILLER_51_217 vdd vss gf180mcu_fd_sc_mcu7t5v0__fill_1
XFILLER_75_1334 vdd vss gf180mcu_fd_sc_mcu7t5v0__fillcap_4
XANTENNA__11076__A1 _06033_ vdd vss gf180mcu_fd_sc_mcu7t5v0__antenna
X_14748_ _02169_ register_file\[20\]\[13\] _02256_ vdd vss gf180mcu_fd_sc_mcu7t5v0__nand2_1
XFILLER_75_1345 vdd vss gf180mcu_fd_sc_mcu7t5v0__fillcap_4
XANTENNA__12812__A2 _07360_ vdd vss gf180mcu_fd_sc_mcu7t5v0__antenna
XFILLER_162_1315 vdd vss gf180mcu_fd_sc_mcu7t5v0__fillcap_8
XFILLER_178_937 vdd vss gf180mcu_fd_sc_mcu7t5v0__fill_2
XFILLER_162_1326 vdd vss gf180mcu_fd_sc_mcu7t5v0__fill_2
XANTENNA__10823__A1 _06100_ vdd vss gf180mcu_fd_sc_mcu7t5v0__antenna
XFILLER_71_1209 vdd vss gf180mcu_fd_sc_mcu7t5v0__fill_1
XFILLER_177_425 vdd vss gf180mcu_fd_sc_mcu7t5v0__fill_1
XANTENNA__14764__I _01426_ vdd vss gf180mcu_fd_sc_mcu7t5v0__antenna
XFILLER_32_453 vdd vss gf180mcu_fd_sc_mcu7t5v0__fill_2
X_14679_ _02103_ register_file\[10\]\[12\] _02188_ vdd vss gf180mcu_fd_sc_mcu7t5v0__nand2_1
XFILLER_149_127 vdd vss gf180mcu_fd_sc_mcu7t5v0__fillcap_8
XFILLER_177_447 vdd vss gf180mcu_fd_sc_mcu7t5v0__fill_1
XFILLER_34_1020 vdd vss gf180mcu_fd_sc_mcu7t5v0__fill_2
X_16418_ _00806_ clknet_leaf_59_clk register_file\[17\]\[6\] vdd vss gf180mcu_fd_sc_mcu7t5v0__dffq_1
XFILLER_193_918 vdd vss gf180mcu_fd_sc_mcu7t5v0__fillcap_4
XFILLER_80_2 vdd vss gf180mcu_fd_sc_mcu7t5v0__fillcap_8
XFILLER_34_1031 vdd vss gf180mcu_fd_sc_mcu7t5v0__fill_1
XANTENNA__15614__CLK clknet_leaf_24_clk vdd vss gf180mcu_fd_sc_mcu7t5v0__antenna
XANTENNA__12576__A1 _07212_ vdd vss gf180mcu_fd_sc_mcu7t5v0__antenna
XFILLER_164_108 vdd vss gf180mcu_fd_sc_mcu7t5v0__fill_1
XFILLER_158_672 vdd vss gf180mcu_fd_sc_mcu7t5v0__fill_2
XFILLER_146_812 vdd vss gf180mcu_fd_sc_mcu7t5v0__fillcap_4
XFILLER_121_1012 vdd vss gf180mcu_fd_sc_mcu7t5v0__fillcap_8
XFILLER_145_300 vdd vss gf180mcu_fd_sc_mcu7t5v0__fill_1
XANTENNA__12284__I _06163_ vdd vss gf180mcu_fd_sc_mcu7t5v0__antenna
XFILLER_34_1075 vdd vss gf180mcu_fd_sc_mcu7t5v0__fill_2
X_16349_ _00737_ clknet_leaf_302_clk register_file\[1\]\[1\] vdd vss gf180mcu_fd_sc_mcu7t5v0__dffq_1
XFILLER_121_1067 vdd vss gf180mcu_fd_sc_mcu7t5v0__fill_1
XFILLER_118_558 vdd vss gf180mcu_fd_sc_mcu7t5v0__fill_1
XANTENNA__10051__A2 register_file\[24\]\[21\] vdd vss gf180mcu_fd_sc_mcu7t5v0__antenna
XFILLER_69_1127 vdd vss gf180mcu_fd_sc_mcu7t5v0__fill_1
XANTENNA__09992__A2 register_file\[22\]\[20\] vdd vss gf180mcu_fd_sc_mcu7t5v0__antenna
XFILLER_69_1138 vdd vss gf180mcu_fd_sc_mcu7t5v0__fill_1
XFILLER_146_889 vdd vss gf180mcu_fd_sc_mcu7t5v0__fillcap_16
XFILLER_195_1157 vdd vss gf180mcu_fd_sc_mcu7t5v0__fillcap_32
XFILLER_156_1108 vdd vss gf180mcu_fd_sc_mcu7t5v0__fill_2
XFILLER_133_517 vdd vss gf180mcu_fd_sc_mcu7t5v0__fillcap_8
XFILLER_105_208 vdd vss gf180mcu_fd_sc_mcu7t5v0__fill_2
XFILLER_86_1430 vdd vss gf180mcu_fd_sc_mcu7t5v0__fillcap_16
XFILLER_172_174 vdd vss gf180mcu_fd_sc_mcu7t5v0__fill_2
XANTENNA__15764__CLK clknet_leaf_177_clk vdd vss gf180mcu_fd_sc_mcu7t5v0__antenna
XFILLER_47_1403 vdd vss gf180mcu_fd_sc_mcu7t5v0__fill_2
XFILLER_177_1580 vdd vss gf180mcu_fd_sc_mcu7t5v0__fill_1
XFILLER_138_1531 vdd vss gf180mcu_fd_sc_mcu7t5v0__fillcap_8
XFILLER_173_1422 vdd vss gf180mcu_fd_sc_mcu7t5v0__fillcap_16
XANTENNA__11000__A1 _06225_ vdd vss gf180mcu_fd_sc_mcu7t5v0__antenna
XANTENNA__09744__A2 register_file\[24\]\[17\] vdd vss gf180mcu_fd_sc_mcu7t5v0__antenna
XFILLER_113_230 vdd vss gf180mcu_fd_sc_mcu7t5v0__fill_2
XANTENNA__08547__A3 net4 vdd vss gf180mcu_fd_sc_mcu7t5v0__antenna
XFILLER_114_764 vdd vss gf180mcu_fd_sc_mcu7t5v0__fill_2
XFILLER_134_1406 vdd vss gf180mcu_fd_sc_mcu7t5v0__fill_2
XFILLER_102_915 vdd vss gf180mcu_fd_sc_mcu7t5v0__fill_2
XFILLER_134_1417 vdd vss gf180mcu_fd_sc_mcu7t5v0__fillcap_32
XFILLER_102_926 vdd vss gf180mcu_fd_sc_mcu7t5v0__fillcap_16
XFILLER_99_475 vdd vss gf180mcu_fd_sc_mcu7t5v0__fillcap_4
XFILLER_113_263 vdd vss gf180mcu_fd_sc_mcu7t5v0__fillcap_4
XFILLER_101_403 vdd vss gf180mcu_fd_sc_mcu7t5v0__fill_2
XFILLER_59_317 vdd vss gf180mcu_fd_sc_mcu7t5v0__fill_2
XFILLER_173_1488 vdd vss gf180mcu_fd_sc_mcu7t5v0__fill_2
XFILLER_101_425 vdd vss gf180mcu_fd_sc_mcu7t5v0__fill_1
X_07984_ _03235_ register_file\[21\]\[26\] _03317_ vdd vss gf180mcu_fd_sc_mcu7t5v0__nand2_1
XFILLER_86_125 vdd vss gf180mcu_fd_sc_mcu7t5v0__fill_2
XANTENNA__13828__A1 _01139_ vdd vss gf180mcu_fd_sc_mcu7t5v0__antenna
XFILLER_47_18 vdd vss gf180mcu_fd_sc_mcu7t5v0__fill_2
X_09723_ _04830_ register_file\[10\]\[16\] _05034_ vdd vss gf180mcu_fd_sc_mcu7t5v0__nand2_1
XFILLER_67_350 vdd vss gf180mcu_fd_sc_mcu7t5v0__fill_2
XANTENNA__11303__A2 _06408_ vdd vss gf180mcu_fd_sc_mcu7t5v0__antenna
XFILLER_67_361 vdd vss gf180mcu_fd_sc_mcu7t5v0__fill_1
XFILLER_110_992 vdd vss gf180mcu_fd_sc_mcu7t5v0__fill_2
X_09654_ _04962_ _04965_ _04900_ _04966_ vdd vss gf180mcu_fd_sc_mcu7t5v0__oai21_1
XANTENNA__08937__I _03850_ vdd vss gf180mcu_fd_sc_mcu7t5v0__antenna
XFILLER_167_1204 vdd vss gf180mcu_fd_sc_mcu7t5v0__fill_2
XFILLER_83_854 vdd vss gf180mcu_fd_sc_mcu7t5v0__fill_1
XFILLER_23_1480 vdd vss gf180mcu_fd_sc_mcu7t5v0__fillcap_8
XFILLER_27_236 vdd vss gf180mcu_fd_sc_mcu7t5v0__fillcap_32
XFILLER_28_759 vdd vss gf180mcu_fd_sc_mcu7t5v0__fill_2
XFILLER_3_1552 vdd vss gf180mcu_fd_sc_mcu7t5v0__fill_2
XFILLER_83_876 vdd vss gf180mcu_fd_sc_mcu7t5v0__fillcap_4
XFILLER_82_342 vdd vss gf180mcu_fd_sc_mcu7t5v0__fill_2
X_08605_ _03896_ _03931_ _03932_ vdd vss gf180mcu_fd_sc_mcu7t5v0__nor2_1
XFILLER_55_567 vdd vss gf180mcu_fd_sc_mcu7t5v0__fill_1
XFILLER_15_409 vdd vss gf180mcu_fd_sc_mcu7t5v0__fillcap_8
X_09585_ _04832_ register_file\[23\]\[14\] _04898_ vdd vss gf180mcu_fd_sc_mcu7t5v0__nand2_1
XFILLER_83_887 vdd vss gf180mcu_fd_sc_mcu7t5v0__fill_2
XANTENNA__13056__A2 _07505_ vdd vss gf180mcu_fd_sc_mcu7t5v0__antenna
XFILLER_58_1521 vdd vss gf180mcu_fd_sc_mcu7t5v0__fillcap_4
XTAP_1107 vdd vss gf180mcu_fd_sc_mcu7t5v0__filltie
XFILLER_63_28 vdd vss gf180mcu_fd_sc_mcu7t5v0__fill_1
XTAP_1118 vdd vss gf180mcu_fd_sc_mcu7t5v0__filltie
XANTENNA__08158__B _03168_ vdd vss gf180mcu_fd_sc_mcu7t5v0__antenna
XTAP_1129 vdd vss gf180mcu_fd_sc_mcu7t5v0__filltie
XFILLER_36_781 vdd vss gf180mcu_fd_sc_mcu7t5v0__fill_2
XFILLER_36_792 vdd vss gf180mcu_fd_sc_mcu7t5v0__fillcap_16
X_08536_ _03771_ _03863_ vdd vss gf180mcu_fd_sc_mcu7t5v0__buf_2
XANTENNA__13999__B _01431_ vdd vss gf180mcu_fd_sc_mcu7t5v0__antenna
XFILLER_23_431 vdd vss gf180mcu_fd_sc_mcu7t5v0__fillcap_8
XFILLER_24_976 vdd vss gf180mcu_fd_sc_mcu7t5v0__fillcap_8
XFILLER_51_762 vdd vss gf180mcu_fd_sc_mcu7t5v0__fill_2
X_08467_ _03790_ _03792_ _03793_ _03794_ vdd vss gf180mcu_fd_sc_mcu7t5v0__nor3_2
XANTENNA__14005__A1 _01143_ vdd vss gf180mcu_fd_sc_mcu7t5v0__antenna
XFILLER_50_250 vdd vss gf180mcu_fd_sc_mcu7t5v0__fill_1
XFILLER_11_615 vdd vss gf180mcu_fd_sc_mcu7t5v0__fillcap_16
XFILLER_17_1240 vdd vss gf180mcu_fd_sc_mcu7t5v0__fillcap_4